[General]
network = Network
[Config exponential]
**.source.interArrivalTime = exponential(${lamb=0.5,0.7,0.8,1.0}s)
**.queue.serviceTime =s
**.SPTF.serviceTime = exponential(${expo=0.33,0.25}s)
sim-time-limit = 100000s
repeat = 30
